@<TRIPOS>MOLECULE
846H_sel.pdb
68 71 1 0 0
SMALL
NO_CHARGES


@<TRIPOS>ATOM
      1 C6        -31.5290    3.9640   25.8180 C.3       1 ZIN    0.0000
      2 C24       -31.8580    2.9710   26.9030 C.ar      1 ZIN    0.0000
      3 C25       -32.4710    3.3970   28.0670 C.ar      1 ZIN    0.0000
      4 C26       -32.7720    2.4860   29.0630 C.ar      1 ZIN    0.0000
      5 C27       -32.4600    1.1500   28.8940 C.ar      1 ZIN    0.0000
      6 C28       -31.8470    0.7250   27.7310 C.ar      1 ZIN    0.0000
      7 C29       -31.5500    1.6340   26.7330 C.ar      1 ZIN    0.0000
      8 C30       -32.7750    4.2810   25.0330 C.ar      1 ZIN    0.0000
      9 C31       -32.9390    5.5350   24.4740 C.ar      1 ZIN    0.0000
     10 C32       -34.0820    5.8270   23.7540 C.ar      1 ZIN    0.0000
     11 C33       -35.0610    4.8650   23.5920 C.ar      1 ZIN    0.0000
     12 C34       -34.8980    3.6110   24.1500 C.ar      1 ZIN    0.0000
     13 C35       -33.7520    3.3170   24.8670 C.ar      1 ZIN    0.0000
     14 C4        -30.9920    5.2280   26.4410 C.2       1 ZIN    0.0000
     15 N2        -29.8510    5.1940   27.1560 N.am      1 ZIN    0.0000
     16 C1        -29.3910    6.3950   27.8580 C.3       1 ZIN    0.0000
     17 C3        -29.0690    3.9570   27.2310 C.3       1 ZIN    0.0000
     18 O5        -31.5890    6.2740   26.2980 O.2       1 ZIN    0.0000
     19 C7        -30.4740    3.3680   24.8840 C.3       1 ZIN    0.0000
     20 C8        -30.2870    4.2860   23.6740 C.3       1 ZIN    0.0000
     21 N9        -28.8550    4.4050   23.3670 N.4       1 ZIN    0.0000
     22 C11       -28.1270    3.2990   24.0010 C.3       1 ZIN    0.0000
     23 C12       -26.6480    3.3720   23.6170 C.3       1 ZIN    0.0000
     24 C13       -26.0680    4.7070   24.0940 C.3       1 ZIN    0.0000
     25 C22       -26.8810    5.8520   23.4850 C.3       1 ZIN    0.0000
     26 C23       -28.3530    5.6870   23.8740 C.3       1 ZIN    0.0000
     27 H10       -28.7220    4.3640   22.3670 H         1 ZIN    0.0000
     28 O14       -26.1370    4.7760   25.5190 O.3       1 ZIN    0.0000
     29 H50       -25.3390    4.4620   25.9670 H         1 ZIN    0.0000
     30 C15       -24.6310    4.8180   23.6540 C.ar      1 ZIN    0.0000
     31 C16       -24.2220    4.2230   22.4750 C.ar      1 ZIN    0.0000
     32 C17       -22.9050    4.3240   22.0700 C.ar      1 ZIN    0.0000
     33 C18       -21.9950    5.0230   22.8450 C.ar      1 ZIN    0.0000
     34 Cl19      -20.3400    5.1510   22.3370 Cl        1 ZIN    0.0000
     35 C20       -22.4050    5.6180   24.0240 C.ar      1 ZIN    0.0000
     36 C21       -23.7240    5.5200   24.4250 C.ar      1 ZIN    0.0000
     37 HC        -32.7150    4.4410   28.1980 H         1 ZIN    0.0000
     38 HC1       -33.2510    2.8180   29.9720 H         1 ZIN    0.0000
     39 HC2       -32.6950    0.4380   29.6710 H         1 ZIN    0.0000
     40 HC3       -31.6000   -0.3180   27.6020 H         1 ZIN    0.0000
     41 HC4       -31.0780    1.3000   25.8210 H         1 ZIN    0.0000
     42 HC5       -32.1740    6.2870   24.6000 H         1 ZIN    0.0000
     43 HC6       -34.2100    6.8070   23.3180 H         1 ZIN    0.0000
     44 HC7       -35.9540    5.0930   23.0290 H         1 ZIN    0.0000
     45 HC8       -35.6650    2.8610   24.0260 H         1 ZIN    0.0000
     46 HC9       -33.6210    2.3350   25.2970 H         1 ZIN    0.0000
     47 HC10      -30.8010    2.3850   24.5470 H         1 ZIN    0.0000
     48 HC11      -29.5280    3.2730   25.4180 H         1 ZIN    0.0000
     49 HC12      -30.8090    3.8650   22.8150 H         1 ZIN    0.0000
     50 HC13      -30.6940    5.2720   23.8990 H         1 ZIN    0.0000
     51 HC14      -28.2250    3.3740   25.0840 H         1 ZIN    0.0000
     52 HC15      -28.5430    2.3500   23.6640 H         1 ZIN    0.0000
     53 HC16      -26.1080    2.5510   24.0890 H         1 ZIN    0.0000
     54 HC17      -26.5490    3.2980   22.5340 H         1 ZIN    0.0000
     55 HC18      -26.5090    6.8040   23.8630 H         1 ZIN    0.0000
     56 HC19      -26.7860    5.8290   22.3990 H         1 ZIN    0.0000
     57 HC20      -28.4460    5.7090   24.9600 H         1 ZIN    0.0000
     58 HC21      -28.9360    6.5010   23.4430 H         1 ZIN    0.0000
     59 HC22      -24.9320    3.6790   21.8700 H         1 ZIN    0.0000
     60 HC23      -22.5850    3.8580   21.1500 H         1 ZIN    0.0000
     61 HC24      -21.6950    6.1590   24.6310 H         1 ZIN    0.0000
     62 HC25      -24.0460    5.9920   25.3410 H         1 ZIN    0.0000
     63 HC26      -28.5700    3.9000   28.1980 H         1 ZIN    0.0000
     64 HC27      -28.3230    3.9500   26.4360 H         1 ZIN    0.0000
     65 HC28      -29.7320    3.1000   27.1140 H         1 ZIN    0.0000
     66 HC29      -30.0960    7.2090   27.6870 H         1 ZIN    0.0000
     67 HC30      -29.3260    6.1890   28.9260 H         1 ZIN    0.0000
     68 HC31      -28.4080    6.6810   27.4830 H         1 ZIN    0.0000
@<TRIPOS>BOND
     1   16   15 1
     2   16   67 1
     3   16   66 1
     4   16   68 1
     5   22   21 1
     6   22   23 1
     7   22   51 1
     8   22   52 1
     9   23   24 1
    10   23   53 1
    11   23   54 1
    12   24   28 1
    13   24   30 1
    14   24   25 1
    15   30   36 ar
    16   30   31 ar
    17   31   32 ar
    18   31   59 1
    19   32   33 ar
    20   32   60 1
    21   33   35 ar
    22   33   34 1
    23   35   36 ar
    24   35   61 1
    25   36   62 1
    26   25   26 1
    27   25   56 1
    28   25   55 1
    29   26   21 1
    30   26   58 1
    31   26   57 1
    32    2    7 ar
    33    2    1 1
    34    2    3 ar
    35    3    4 ar
    36    3   37 1
    37    4    5 ar
    38    4   38 1
    39    5    6 ar
    40    5   39 1
    41    6    7 ar
    42    6   40 1
    43    7   41 1
    44   17   15 1
    45   17   64 1
    46   17   65 1
    47   17   63 1
    48    8    9 ar
    49    8    1 1
    50    8   13 ar
    51    9   10 ar
    52    9   42 1
    53   10   11 ar
    54   10   43 1
    55   11   12 ar
    56   11   44 1
    57   12   13 ar
    58   12   45 1
    59   13   46 1
    60   14    1 1
    61   14   18 2
    62   14   15 am
    63    1   19 1
    64   19   20 1
    65   19   48 1
    66   19   47 1
    67   20   21 1
    68   20   49 1
    69   20   50 1
    70   27   21 1
    71   29   28 1
@<TRIPOS>SUBSTRUCTURE
     1 ZIN     1 RESIDUE           4 A     ZIN     0 ROOT
